# test
add a new line.
new line.
new line.
