# test
add a new line.
new line.
new line.
repush dev branch.
change in main branch.
0528
