# test
add a new line.
new line.
new line.
repush dev branch.
0528
